
#(C) 2019 by FIZ Karlsruhe - Leibniz Institute for Information Infrastructure.  All rights reserved.
data_43358-ICSD
_database_code_ICSD 43358
_audit_creation_date 2000-07-15
_chemical_name_systematic 'Cadmium tin(IV) arsenide - LT'
_chemical_formula_structural 'Cd Sn As2'
_chemical_formula_sum 'As2 Cd1 Sn1'
_chemical_name_structure_type Chalcopyrite-CuFeS2
_exptl_crystal_density_diffrn 5.71
_publ_section_title 'The properties of Zn Sn As2 and Cd Sn As2'
loop_
_citation_id
_citation_journal_full
_citation_year
_citation_journal_volume
_citation_page_first
_citation_page_last
_citation_journal_id_ASTM
primary 'Journal of Physics and Chemistry of Solids' 1962 23 1291 1302 JPCSAW
loop_
_publ_author_name
'Gasson, D.B.'
'Holmes, P.J.'
'Jennings, I.C.'
'Marathe, B.R.'
'Parrott, J.E.'
_cell_length_a 6.093(1)
_cell_length_b 6.093(1)
_cell_length_c 11.936(1)
_cell_angle_alpha 90.
_cell_angle_beta 90.
_cell_angle_gamma 90.
_cell_volume 443.12
_cell_formula_units_Z 4
_symmetry_space_group_name_H-M 'I -4 2 d'
_symmetry_Int_Tables_number 122
loop_
_symmetry_equiv_pos_site_id
_symmetry_equiv_pos_as_xyz
1 '-y, -x+1/2, z+1/4'
2 'y, -x, -z'
3 'y, x+1/2, z+1/4'
4 '-y, x, -z'
5 'x, -y+1/2, -z+1/4'
6 '-x, -y, z'
7 '-x, y+1/2, -z+1/4'
8 'x, y, z'
9 '-y+1/2, -x, z+3/4'
10 'y+1/2, -x+1/2, -z+1/2'
11 'y+1/2, x, z+3/4'
12 '-y+1/2, x+1/2, -z+1/2'
13 'x+1/2, -y, -z+3/4'
14 '-x+1/2, -y+1/2, z+1/2'
15 '-x+1/2, y, -z+3/4'
16 'x+1/2, y+1/2, z+1/2'
loop_
_atom_type_symbol
_atom_type_oxidation_number
Cd2+ 2
Sn4+ 4
As3- -3
loop_
_atom_site_label
_atom_site_type_symbol
_atom_site_symmetry_multiplicity
_atom_site_Wyckoff_symbol
_atom_site_fract_x
_atom_site_fract_y
_atom_site_fract_z
_atom_site_B_iso_or_equiv
_atom_site_occupancy
_atom_site_attached_hydrogens
Cd1 Cd2+ 4 a 0 0 0 . 1. 0
Sn1 Sn4+ 4 b 0 0 0.5 . 1. 0
As1 As3- 8 d 0.239 0.25 0.125 . 1. 0
#End of TTdata_43358-ICSD